****** HSPICE -- M-2017.03-SP2 linux64 (Aug 22 2017) ******
 Input File: ArrayTest_basic_raw.sp
 lic:
 lic: FLEXlm: SDK_11.6.4
 lic: USER:   mcoduoza             HOSTNAME: r6cad-tsmc40r.stanford.edu
 lic: HOSTID: 0a255e8b9a3f         PID:      22887
 lic: Using FLEXlm license file:
 lic: 27000@cadlic0.stanford.edu
 lic: Checkout 1 hspice
 lic: License/Maintenance for hspice will expire on 06-nov-2022/2020.03
 lic: 1(in_use)/200(total) FLOATING license(s) on SERVER 27000@cadlic0.stanford.edu
 lic:
 init: begin read circuit files, cpu clock= 1.40E-01
       option search = /hd/cad/synopsys/hspice/M-2017.03-SP2/hspice/par
                         ts/ad
       option runlvl
       option post =     2.00
 init: end read circuit files, cpu clock= 8.80E-01 peak memory=     252 mb
 init: begin check errors, cpu clock= 8.80E-01
 init: end check errors, cpu clock= 9.50E-01 peak memory=     271 mb
 init: begin setup matrix, pivot=     0 cpu clock= 9.50E-01
       establish matrix -- done, cpu clock= 9.50E-01 peak memory=     272 mb
       re-order matrix -- done, cpu clock= 1.08E+00 peak memory=     280 mb
 init: end setup matrix, cpu clock= 1.09E+00 peak memory=     284 mb
 dcop: begin dcop, cpu clock= 1.09E+00
 dcop: begin pseudo transient
 dcop: end pseudo transient
 dcop: begin gshunt ramping
 dcop: gshunt =      0.1000000E-03, gmin =      0.1000000E-11, iter =       52
 dcop: gshunt =      0.1000000E-03, gmin =      0.9500000E-11, iter =       57
 dcop: gshunt =      0.5050000E-03, gmin =      0.9500000E-11, iter =       11
 dcop: gshunt =      0.2550250E-03, gmin =      0.9500000E-11, iter =        9
 dcop: gshunt =      0.2550250E-03, gmin =      0.4750000E-11, iter =        3
 dcop: gshunt =      0.1287876E-03, gmin =      0.4750000E-11, iter =       34
 dcop: gshunt =      0.1287876E-03, gmin =      0.2375000E-11, iter =        3
 dcop: gshunt =      0.6503775E-04, gmin =      0.2375000E-11, iter =       31
 dcop: gshunt =      0.6503775E-04, gmin =      0.1187500E-11, iter =        3
 dcop: gshunt =      0.1674722E-04, gmin =      0.1187500E-11, iter =       43
 dcop: gshunt =      0.1674722E-04, gmin =      0.1128125E-10, iter =       42
 dcop: gshunt =      0.3847796E-04, gmin =      0.1128125E-10, iter =       15
 dcop: gshunt =      0.2276452E-04, gmin =      0.1128125E-10, iter =       53
 dcop: gshunt =      0.2276452E-04, gmin =      0.1071719E-09, iter =       84
 dcop: gshunt =      0.2983557E-04, gmin =      0.1071719E-09, iter =       53
 dcop: gshunt =      0.2313431E-04, gmin =      0.1071719E-09, iter =        6
 dcop: gshunt =      0.2313431E-04, gmin =      0.5358594E-10, iter =        3
 dcop: gshunt =      0.1793820E-04, gmin =      0.5358594E-10, iter =        6
 dcop: gshunt =      0.1793820E-04, gmin =      0.2679297E-10, iter =        3
 dcop: gshunt =      0.1390917E-04, gmin =      0.2679297E-10, iter =        6
 dcop: gshunt =      0.1390917E-04, gmin =      0.1339648E-10, iter =        3
 dcop: gshunt =      0.9223040E-05, gmin =      0.1339648E-10, iter =        6
 dcop: gshunt =      0.9223040E-05, gmin =      0.6698242E-11, iter =        3
 dcop: gshunt =      0.4562047E-05, gmin =      0.6698242E-11, iter =        6
 dcop: gshunt =      0.4562047E-05, gmin =      0.3349121E-11, iter =        3
 dcop: gshunt =      0.1103805E-05, gmin =      0.3349121E-11, iter =        6
 dcop: gshunt =      0.1103805E-05, gmin =      0.1674561E-11, iter =        3
 dcop: gshunt =      0.1103805E-06, gmin =      0.1674561E-11, iter =        7
 dcop: gshunt =      0.1103805E-06, gmin =      0.1000000E-11, iter =        3
 dcop: gshunt =      0.1103805E-07, gmin =      0.1000000E-11, iter =        7
 dcop: gshunt =      0.1103805E-08, gmin =      0.1000000E-11, iter =        7
 dcop: gshunt =      0.1103805E-09, gmin =      0.1000000E-11, iter =        9
 dcop: gshunt =      0.1103805E-10, gmin =      0.1000000E-11, iter =        7
 dcop: gshunt =      0.1103805E-11, gmin =      0.1000000E-11, iter =        5
 dcop: gshunt =      0.1103805E-12, gmin =      0.1000000E-11, iter =        4
 dcop: gshunt =      0.1103805E-13, gmin =      0.1000000E-11, iter =        3
 dcop: gshunt =      0.1103805E-14, gmin =      0.1000000E-11, iter =        3
 dcop: gshunt =      0.0000000E+00, gmin =      0.1000000E-11, iter =        3
 dcop: gshunt ramping succeeded
 dcop: end dcop, cpu clock= 7.45E+00 peak memory=     283 mb tot_iter=    1116
 output: ArrayTest_basic_raw.tr0
 sweep: tran tran0    begin, stop_t=  2.00E-06 #sweeps=**** cpu clock= 7.46E+00
 tran: time= 2.0806E-07 tot_iter=     339 conv_iter=     109 cpu clock= 8.52E+00
 tran: time= 4.4682E-07 tot_iter=     345 conv_iter=     112 cpu clock= 8.54E+00
 tran: time= 6.2499E-07 tot_iter=     495 conv_iter=     162 cpu clock= 8.87E+00
 tran: time= 8.0176E-07 tot_iter=     664 conv_iter=     214 cpu clock= 9.22E+00
 tran: time= 1.0000E-06 tot_iter=     670 conv_iter=     217 cpu clock= 9.24E+00
 tran: time= 1.2506E-06 tot_iter=     946 conv_iter=     307 cpu clock= 1.01E+01
 tran: time= 1.4338E-06 tot_iter=     954 conv_iter=     311 cpu clock= 1.01E+01
 tran: time= 1.6244E-06 tot_iter=    1207 conv_iter=     392 cpu clock= 1.07E+01
 tran: time= 1.8787E-06 tot_iter=    1215 conv_iter=     396 cpu clock= 1.07E+01
 tran: time= 2.0000E-06 tot_iter=    1221 conv_iter=     398 cpu clock= 1.07E+01
 sweep: tran tran0    end, cpu clock= 1.07E+01 peak memory=     284 mb
>info:         ***** hspice job concluded
 lic: Release hspice token(s)
