****** HSPICE -- M-2017.03-SP2 linux64 (Aug 22 2017) ******
 Input File: RRAM_characterization.sp
 lic:
 lic: FLEXlm: SDK_11.6.4
 lic: USER:   mcoduoza             HOSTNAME: r6cad-tsmc40r.stanford.edu
 lic: HOSTID: 0a255e8b9a3f         PID:      12969
 lic: Using FLEXlm license file:
 lic: 27000@cadlic0.stanford.edu
 lic: Checkout 1 hspice
 lic: License/Maintenance for hspice will expire on 06-nov-2022/2020.03
 lic: 1(in_use)/200(total) FLOATING license(s) on SERVER 27000@cadlic0.stanford.edu
 lic:
 init: begin read circuit files, cpu clock= 1.20E-01
       option search = /hd/cad/synopsys/hspice/M-2017.03-SP2/hspice/par
                         ts/ad
       option runlvl
       option post =     2.00
       option runlvl =     5.00
       option accurate
       option method = gear
       option vntol =    1.000E-09
 init: end read circuit files, cpu clock= 2.70E-01 peak memory=     254 mb
 init: begin check errors, cpu clock= 2.70E-01
 init: end check errors, cpu clock= 2.70E-01 peak memory=     258 mb
 init: begin setup matrix, pivot=     0 cpu clock= 2.70E-01
       establish matrix -- done, cpu clock= 2.70E-01 peak memory=     258 mb
       re-order matrix -- done, cpu clock= 2.70E-01 peak memory=     258 mb
 init: end setup matrix, cpu clock= 3.20E-01 peak memory=     258 mb
 dcop: begin dcop, cpu clock= 3.20E-01
 dcop: end dcop, cpu clock= 3.60E-01 peak memory=     257 mb tot_iter=       3
 output: RRAM_characterization.tr0
 sweep: tran tran0    begin, stop_t=  1.00E-08 #sweeps=1001 cpu clock= 3.70E-01
 tran: time= 1.3827E-09 tot_iter=      14 conv_iter=       7 cpu clock= 3.70E-01
 tran: time= 2.3827E-09 tot_iter=      18 conv_iter=       9 cpu clock= 3.70E-01
 tran: time= 3.3827E-09 tot_iter=      22 conv_iter=      11 cpu clock= 3.70E-01
 tran: time= 4.3827E-09 tot_iter=      26 conv_iter=      13 cpu clock= 3.70E-01
 tran: time= 5.3827E-09 tot_iter=      30 conv_iter=      15 cpu clock= 3.70E-01
 tran: time= 6.3827E-09 tot_iter=      34 conv_iter=      17 cpu clock= 3.70E-01
 tran: time= 7.3827E-09 tot_iter=      38 conv_iter=      19 cpu clock= 3.70E-01
 tran: time= 8.3827E-09 tot_iter=      42 conv_iter=      21 cpu clock= 3.70E-01
 tran: time= 9.3827E-09 tot_iter=      46 conv_iter=      23 cpu clock= 3.70E-01
 tran: time= 1.0000E-08 tot_iter=      50 conv_iter=      25 cpu clock= 3.70E-01
 sweep: tran tran0    end, cpu clock= 3.70E-01 peak memory=     258 mb
>info:         ***** hspice job concluded
 lic: Release hspice token(s)
