****** HSPICE -- M-2017.03-SP2 linux64 (Aug 22 2017) ******
 Input File: 2R_test.sp
 lic:
 lic: FLEXlm: SDK_11.6.4
 lic: USER:   mcoduoza             HOSTNAME: r6cad-tsmc40r.stanford.edu
 lic: HOSTID: 0a255e8b9a3f         PID:      29798
 lic: Using FLEXlm license file:
 lic: 27000@cadlic0.stanford.edu
 lic: Checkout 1 hspice
 lic: License/Maintenance for hspice will expire on 06-nov-2022/2020.03
 lic: 1(in_use)/200(total) FLOATING license(s) on SERVER 27000@cadlic0.stanford.edu
 lic:
 init: begin read circuit files, cpu clock= 1.30E-01
       option search = /hd/cad/synopsys/hspice/M-2017.03-SP2/hspice/par
                         ts/ad
       option runlvl
       option post =     2.00
       option runlvl =     5.00
       option accurate
       option method = gear
       option vntol =    1.000E-09
 init: end read circuit files, cpu clock= 2.50E-01 peak memory=     254 mb
 init: begin check errors, cpu clock= 2.50E-01
 init: end check errors, cpu clock= 2.60E-01 peak memory=     258 mb
 init: begin setup matrix, pivot=     0 cpu clock= 2.60E-01
       establish matrix -- done, cpu clock= 2.60E-01 peak memory=     258 mb
       re-order matrix -- done, cpu clock= 2.60E-01 peak memory=     258 mb
 init: end setup matrix, cpu clock= 3.00E-01 peak memory=     258 mb
 dcop: begin dcop, cpu clock= 3.00E-01
 dcop: end dcop, cpu clock= 3.50E-01 peak memory=     257 mb tot_iter=       6
 output: 2R_test.tr0
 sweep: tran tran0    begin, stop_t=  1.00E-08 #sweeps=1001 cpu clock= 3.60E-01
 tran: time= 1.3742E-09 tot_iter=     104 conv_iter=      40 cpu clock= 3.60E-01
 tran: time= 2.3742E-09 tot_iter=     108 conv_iter=      42 cpu clock= 3.60E-01
 tran: time= 3.3742E-09 tot_iter=     112 conv_iter=      44 cpu clock= 3.60E-01
 tran: time= 4.3742E-09 tot_iter=     116 conv_iter=      46 cpu clock= 3.60E-01
 tran: time= 5.3742E-09 tot_iter=     120 conv_iter=      48 cpu clock= 3.60E-01
 tran: time= 6.3742E-09 tot_iter=     124 conv_iter=      50 cpu clock= 3.60E-01
 tran: time= 7.3742E-09 tot_iter=     128 conv_iter=      52 cpu clock= 3.60E-01
 tran: time= 8.3742E-09 tot_iter=     132 conv_iter=      54 cpu clock= 3.60E-01
 tran: time= 9.3742E-09 tot_iter=     136 conv_iter=      56 cpu clock= 3.60E-01
 tran: time= 1.0000E-08 tot_iter=     140 conv_iter=      58 cpu clock= 3.70E-01
 sweep: tran tran0    end, cpu clock= 3.70E-01 peak memory=     258 mb
>info:         ***** hspice job concluded
 lic: Release hspice token(s)
