****** HSPICE -- M-2017.03-SP2 linux64 (Aug 22 2017) ******
 Input File: ArrayTest_basic_raw.sp
 lic:
 lic: FLEXlm: SDK_11.6.4
 lic: USER:   mcoduoza             HOSTNAME: r6cad-tsmc40r.stanford.edu
 lic: HOSTID: 0a255e8b9a3f         PID:      12833
 lic: Using FLEXlm license file:
 lic: 27000@cadlic0.stanford.edu
 lic: Checkout 1 hspice
 lic: License/Maintenance for hspice will expire on 06-nov-2022/2020.03
 lic: 1(in_use)/200(total) FLOATING license(s) on SERVER 27000@cadlic0.stanford.edu
 lic:
 init: begin read circuit files, cpu clock= 1.50E-01
       option search = /hd/cad/synopsys/hspice/M-2017.03-SP2/hspice/par
                         ts/ad
       option runlvl
       option post =     2.00
 init: end read circuit files, cpu clock= 8.80E-01 peak memory=     251 mb
 init: begin check errors, cpu clock= 8.80E-01
 init: end check errors, cpu clock= 9.40E-01 peak memory=     272 mb
 init: begin setup matrix, pivot=     0 cpu clock= 9.40E-01
       establish matrix -- done, cpu clock= 9.50E-01 peak memory=     273 mb
       re-order matrix -- done, cpu clock= 1.08E+00 peak memory=     280 mb
 init: end setup matrix, cpu clock= 1.10E+00 peak memory=     285 mb
 dcop: begin dcop, cpu clock= 1.10E+00
 dcop: begin pseudo transient
 dcop: end pseudo transient
 dcop: begin gshunt ramping
 dcop: gshunt =      0.1000000E-03, gmin =      0.1000000E-11, iter =       40
 dcop: gshunt =      0.1000000E-03, gmin =      0.9500000E-11, iter =       40
 dcop: gshunt =      0.5050000E-03, gmin =      0.9500000E-11, iter =       12
 dcop: gshunt =      0.2550250E-03, gmin =      0.9500000E-11, iter =       10
 dcop: gshunt =      0.2550250E-03, gmin =      0.4750000E-11, iter =        3
 dcop: gshunt =      0.1287876E-03, gmin =      0.4750000E-11, iter =       46
 dcop: gshunt =      0.1287876E-03, gmin =      0.2375000E-11, iter =        3
 dcop: gshunt =      0.6503775E-04, gmin =      0.2375000E-11, iter =       36
 dcop: gshunt =      0.6503775E-04, gmin =      0.1187500E-11, iter =        3
 dcop: gshunt =      0.1674722E-04, gmin =      0.1187500E-11, iter =       42
 dcop: gshunt =      0.1674722E-04, gmin =      0.1128125E-10, iter =       51
 dcop: gshunt =      0.3847796E-04, gmin =      0.1128125E-10, iter =       22
 dcop: gshunt =      0.2276452E-04, gmin =      0.1128125E-10, iter =       25
 dcop: gshunt =      0.2276452E-04, gmin =      0.1071719E-09, iter =       68
 dcop: gshunt =      0.2983557E-04, gmin =      0.1071719E-09, iter =       30
 dcop: gshunt =      0.2313431E-04, gmin =      0.1071719E-09, iter =        6
 dcop: gshunt =      0.2313431E-04, gmin =      0.5358594E-10, iter =        3
 dcop: gshunt =      0.1793820E-04, gmin =      0.5358594E-10, iter =        6
 dcop: gshunt =      0.1793820E-04, gmin =      0.2679297E-10, iter =        3
 dcop: gshunt =      0.1390917E-04, gmin =      0.2679297E-10, iter =        6
 dcop: gshunt =      0.1390917E-04, gmin =      0.1339648E-10, iter =        3
 dcop: gshunt =      0.9223040E-05, gmin =      0.1339648E-10, iter =        6
 dcop: gshunt =      0.9223040E-05, gmin =      0.6698242E-11, iter =        3
 dcop: gshunt =      0.4562047E-05, gmin =      0.6698242E-11, iter =        6
 dcop: gshunt =      0.4562047E-05, gmin =      0.3349121E-11, iter =        3
 dcop: gshunt =      0.1103805E-05, gmin =      0.3349121E-11, iter =        6
 dcop: gshunt =      0.1103805E-05, gmin =      0.1674561E-11, iter =        3
 dcop: gshunt =      0.1103805E-06, gmin =      0.1674561E-11, iter =        7
 dcop: gshunt =      0.1103805E-06, gmin =      0.1000000E-11, iter =        3
 dcop: gshunt =      0.1103805E-07, gmin =      0.1000000E-11, iter =        8
 dcop: gshunt =      0.1103805E-08, gmin =      0.1000000E-11, iter =        7
 dcop: gshunt =      0.1103805E-09, gmin =      0.1000000E-11, iter =        8
 dcop: gshunt =      0.1103805E-10, gmin =      0.1000000E-11, iter =        7
 dcop: gshunt =      0.1103805E-11, gmin =      0.1000000E-11, iter =        5
 dcop: gshunt =      0.1103805E-12, gmin =      0.1000000E-11, iter =        4
 dcop: gshunt =      0.1103805E-13, gmin =      0.1000000E-11, iter =        3
 dcop: gshunt =      0.1103805E-14, gmin =      0.1000000E-11, iter =        3
 dcop: gshunt =      0.0000000E+00, gmin =      0.1000000E-11, iter =        3
 dcop: gshunt ramping succeeded
 dcop: end dcop, cpu clock= 7.43E+00 peak memory=     284 mb tot_iter=    1065
 output: ArrayTest_basic_raw.tr0
 sweep: tran tran0    begin, stop_t=  2.00E-05 #sweeps=**** cpu clock= 7.43E+00
 tran: time= 2.1623E-06 tot_iter=     364 conv_iter=     110 cpu clock= 8.60E+00
 tran: time= 4.0472E-06 tot_iter=     382 conv_iter=     114 cpu clock= 8.63E+00
 tran: time= 6.1822E-06 tot_iter=     549 conv_iter=     167 cpu clock= 9.01E+00
 tran: time= 8.1214E-06 tot_iter=     727 conv_iter=     218 cpu clock= 9.37E+00
 tran: time= 1.0000E-05 tot_iter=     731 conv_iter=     220 cpu clock= 9.38E+00
 tran: time= 1.2538E-05 tot_iter=    1043 conv_iter=     313 cpu clock= 1.03E+01
 tran: time= 1.4497E-05 tot_iter=    1047 conv_iter=     315 cpu clock= 1.03E+01
 tran: time= 1.6186E-05 tot_iter=    1216 conv_iter=     368 cpu clock= 1.07E+01
 tran: time= 1.8533E-05 tot_iter=    1362 conv_iter=     412 cpu clock= 1.10E+01
 tran: time= 2.0000E-05 tot_iter=    1366 conv_iter=     414 cpu clock= 1.10E+01
 sweep: tran tran0    end, cpu clock= 1.10E+01 peak memory=     285 mb
>info:         ***** hspice job concluded
 lic: Release hspice token(s)
