****** HSPICE -- M-2017.03-SP2 linux64 (Aug 22 2017) ******
 Input File: ArrayTest.sp
 lic:
 lic: FLEXlm: SDK_11.6.4
 lic: USER:   mcoduoza             HOSTNAME: r6cad-tsmc40r.stanford.edu
 lic: HOSTID: 0a255e8b9a3f         PID:      1687
 lic: Using FLEXlm license file:
 lic: 27000@cadlic0.stanford.edu
 lic: Checkout 1 hspice
 lic: License/Maintenance for hspice will expire on 06-nov-2022/2020.03
 lic: 1(in_use)/200(total) FLOATING license(s) on SERVER 27000@cadlic0.stanford.edu
 lic:
 init: begin read circuit files, cpu clock= 1.50E-01
       option search = /hd/cad/synopsys/hspice/M-2017.03-SP2/hspice/par
                         ts/ad
       option runlvl
       option post =     2.00
 init: end read circuit files, cpu clock= 8.70E-01 peak memory=     250 mb
 init: begin check errors, cpu clock= 8.70E-01
 init: end check errors, cpu clock= 9.30E-01 peak memory=     268 mb
 init: begin setup matrix, pivot=     0 cpu clock= 9.30E-01
       establish matrix -- done, cpu clock= 9.40E-01 peak memory=     269 mb
       re-order matrix -- done, cpu clock= 1.05E+00 peak memory=     276 mb
 init: end setup matrix, cpu clock= 1.06E+00 peak memory=     280 mb
 dcop: begin dcop, cpu clock= 1.06E+00
 dcop: begin pseudo transient
 dcop: end pseudo transient
 dcop: begin gshunt ramping
 dcop: gshunt =      0.1000000E-03, gmin =      0.1000000E-11, iter =       15
 dcop: gshunt =      0.1000000E-04, gmin =      0.1000000E-11, iter =       33
 dcop: gshunt =      0.1000000E-04, gmin =      0.9500000E-11, iter =       38
 dcop: gshunt =      0.5050000E-04, gmin =      0.9500000E-11, iter =       49
 dcop: gshunt =      0.5050000E-04, gmin =      0.9025000E-10, iter =       47
 dcop: gshunt =      0.7277500E-04, gmin =      0.9025000E-10, iter =       21
 dcop: gshunt =      0.5296201E-04, gmin =      0.9025000E-10, iter =        7
 dcop: gshunt =      0.5296201E-04, gmin =      0.4512500E-10, iter =        3
 dcop: gshunt =      0.3854310E-04, gmin =      0.4512500E-10, iter =       11
 dcop: gshunt =      0.3854310E-04, gmin =      0.2256250E-10, iter =        3
 dcop: gshunt =      0.2804974E-04, gmin =      0.2256250E-10, iter =        8
 dcop: gshunt =      0.2804974E-04, gmin =      0.1128125E-10, iter =        3
 dcop: gshunt =      0.1659493E-04, gmin =      0.1128125E-10, iter =        7
 dcop: gshunt =      0.1659493E-04, gmin =      0.5640625E-11, iter =        3
 dcop: gshunt =      0.6429497E-05, gmin =      0.5640625E-11, iter =        7
 dcop: gshunt =      0.6429497E-05, gmin =      0.2820312E-11, iter =        3
 dcop: gshunt =      0.6429497E-06, gmin =      0.2820312E-11, iter =        7
 dcop: gshunt =      0.6429497E-06, gmin =      0.1410156E-11, iter =        3
 dcop: gshunt =      0.6429497E-07, gmin =      0.1410156E-11, iter =        7
 dcop: gshunt =      0.6429497E-07, gmin =      0.1000000E-11, iter =        3
 dcop: gshunt =      0.6429497E-08, gmin =      0.1000000E-11, iter =        8
 dcop: gshunt =      0.6429497E-09, gmin =      0.1000000E-11, iter =        7
 dcop: gshunt =      0.6429497E-10, gmin =      0.1000000E-11, iter =        9
 dcop: gshunt =      0.6429497E-11, gmin =      0.1000000E-11, iter =        6
 dcop: gshunt =      0.6429497E-12, gmin =      0.1000000E-11, iter =        5
 dcop: gshunt =      0.6429497E-13, gmin =      0.1000000E-11, iter =        4
 dcop: gshunt =      0.6429497E-14, gmin =      0.1000000E-11, iter =        3
 dcop: gshunt =      0.0000000E+00, gmin =      0.1000000E-11, iter =        3
 dcop: gshunt ramping succeeded
 dcop: end dcop, cpu clock= 5.33E+00 peak memory=     280 mb tot_iter=     823
 output: ArrayTest.tr0
 sweep: tran tran0    begin, stop_t=  2.00E-06 #sweeps=**** cpu clock= 5.33E+00
 tran: time= 2.3547E-07 tot_iter=     378 conv_iter=     118 cpu clock= 6.24E+00
 tran: time= 4.1205E-07 tot_iter=     394 conv_iter=     121 cpu clock= 6.27E+00
 tran: time= 6.1136E-07 tot_iter=     673 conv_iter=     200 cpu clock= 6.88E+00
 tran: time= 8.0185E-07 tot_iter=     683 conv_iter=     205 cpu clock= 6.90E+00
 tran: time= 1.0000E-06 tot_iter=     690 conv_iter=     208 cpu clock= 6.92E+00
 tran: time= 1.2646E-06 tot_iter=     711 conv_iter=     217 cpu clock= 6.96E+00
 tran: time= 1.4633E-06 tot_iter=     717 conv_iter=     219 cpu clock= 6.97E+00
 tran: time= 1.6028E-06 tot_iter=     971 conv_iter=     285 cpu clock= 7.51E+00
 tran: time= 1.8031E-06 tot_iter=     995 conv_iter=     295 cpu clock= 7.56E+00
 tran: time= 2.0000E-06 tot_iter=    1004 conv_iter=     298 cpu clock= 7.58E+00
 sweep: tran tran0    end, cpu clock= 7.59E+00 peak memory=     281 mb
>info:         ***** hspice job concluded
 lic: Release hspice token(s)
