****** HSPICE -- M-2017.03-SP2 linux64 (Aug 22 2017) ******
 Input File: ArrayTest_basic_write.sp
 lic:
 lic: FLEXlm: SDK_11.6.4
 lic: USER:   mcoduoza             HOSTNAME: r6cad-tsmc40r.stanford.edu
 lic: HOSTID: 0a255e8b9a3f         PID:      27246
 lic: Using FLEXlm license file:
 lic: 27000@cadlic0.stanford.edu
 lic: Checkout 1 hspice
 lic: License/Maintenance for hspice will expire on 06-nov-2022/2020.03
 lic: 1(in_use)/200(total) FLOATING license(s) on SERVER 27000@cadlic0.stanford.edu
 lic:
 init: begin read circuit files, cpu clock= 1.50E-01
       option search = /hd/cad/synopsys/hspice/M-2017.03-SP2/hspice/par
                         ts/ad
       option runlvl
       option post =     2.00
 init: end read circuit files, cpu clock= 2.90E-01 peak memory=     256 mb
 init: begin check errors, cpu clock= 2.90E-01
 init: end check errors, cpu clock= 4.40E-01 peak memory=     276 mb
 init: begin setup matrix, pivot=     0 cpu clock= 4.40E-01
       establish matrix -- done, cpu clock= 4.60E-01 peak memory=     277 mb
       re-order matrix -- done, cpu clock= 7.30E-01 peak memory=     285 mb
 init: end setup matrix, cpu clock= 8.60E-01 peak memory=     288 mb
 dcop: begin dcop, cpu clock= 8.70E-01
 dcop: begin pseudo transient
 dcop: end pseudo transient
 dcop: begin gshunt ramping
 dcop: gshunt =      0.1000000E-03, gmin =      0.1000000E-11, iter =      132
 dcop: gshunt =      0.1000000E-03, gmin =      0.9500000E-11, iter =       49
 dcop: gshunt =      0.5050000E-03, gmin =      0.9500000E-11, iter =       11
 dcop: gshunt =      0.2550250E-03, gmin =      0.9500000E-11, iter =        9
 dcop: gshunt =      0.2550250E-03, gmin =      0.4750000E-11, iter =        3
 dcop: gshunt =      0.1287876E-03, gmin =      0.4750000E-11, iter =       37
 dcop: gshunt =      0.1287876E-03, gmin =      0.2375000E-11, iter =        3
 dcop: gshunt =      0.6503775E-04, gmin =      0.2375000E-11, iter =       93
 dcop: gshunt =      0.6503775E-04, gmin =      0.1187500E-11, iter =        3
 dcop: gshunt =      0.1674722E-04, gmin =      0.1187500E-11, iter =       42
 dcop: gshunt =      0.1674722E-04, gmin =      0.1128125E-10, iter =       62
 dcop: gshunt =      0.3847796E-04, gmin =      0.1128125E-10, iter =       15
 dcop: gshunt =      0.2276452E-04, gmin =      0.1128125E-10, iter =       18
 dcop: gshunt =      0.2276452E-04, gmin =      0.5640625E-11, iter =        3
 dcop: gshunt =      0.1346806E-04, gmin =      0.5640625E-11, iter =        7
 dcop: gshunt =      0.1346806E-04, gmin =      0.2820312E-11, iter =        3
 dcop: gshunt =      0.7968041E-05, gmin =      0.2820312E-11, iter =        7
 dcop: gshunt =      0.7968041E-05, gmin =      0.1410156E-11, iter =        3
 dcop: gshunt =      0.3087118E-05, gmin =      0.1410156E-11, iter =        6
 dcop: gshunt =      0.3087118E-05, gmin =      0.1000000E-11, iter =        3
 dcop: gshunt =      0.3087118E-06, gmin =      0.1000000E-11, iter =        7
 dcop: gshunt =      0.3087118E-07, gmin =      0.1000000E-11, iter =        7
 dcop: gshunt =      0.3087118E-08, gmin =      0.1000000E-11, iter =        7
 dcop: gshunt =      0.3087118E-09, gmin =      0.1000000E-11, iter =        7
 dcop: gshunt =      0.3087118E-10, gmin =      0.1000000E-11, iter =        8
 dcop: gshunt =      0.3087118E-11, gmin =      0.1000000E-11, iter =        6
 dcop: gshunt =      0.3087118E-12, gmin =      0.1000000E-11, iter =        5
 dcop: gshunt =      0.3087118E-13, gmin =      0.1000000E-11, iter =        4
 dcop: gshunt =      0.3087118E-14, gmin =      0.1000000E-11, iter =        3
 dcop: gshunt =      0.0000000E+00, gmin =      0.1000000E-11, iter =        3
 dcop: gshunt ramping succeeded
 dcop: end dcop, cpu clock= 7.33E+00 peak memory=     282 mb tot_iter=    1067
 output: ArrayTest_basic_write.tr0
 sweep: tran tran0    begin, stop_t=  2.00E-07 #sweeps=**** cpu clock= 7.34E+00
 tran: time= 2.8356E-08 tot_iter=     318 conv_iter=     106 cpu clock= 8.38E+00
 tran: time= 4.8356E-08 tot_iter=     322 conv_iter=     108 cpu clock= 8.39E+00
 tran: time= 6.4069E-08 tot_iter=     519 conv_iter=     172 cpu clock= 8.86E+00
 tran: time= 8.0261E-08 tot_iter=     641 conv_iter=     204 cpu clock= 9.10E+00
 tran: time= 1.0001E-07 tot_iter=     649 conv_iter=     208 cpu clock= 9.12E+00
 tran: time= 1.2474E-07 tot_iter=     900 conv_iter=     287 cpu clock= 9.85E+00
 tran: time= 1.4636E-07 tot_iter=     906 conv_iter=     290 cpu clock= 9.87E+00
 tran: time= 1.6485E-07 tot_iter=    1089 conv_iter=     348 cpu clock= 1.03E+01
 tran: time= 1.8501E-07 tot_iter=    1095 conv_iter=     351 cpu clock= 1.03E+01
 tran: time= 2.0000E-07 tot_iter=    1099 conv_iter=     353 cpu clock= 1.03E+01
 sweep: tran tran0    end, cpu clock= 1.03E+01 peak memory=     283 mb
>info:         ***** hspice job concluded
 lic: Release hspice token(s)
